# generated using pymatgen
data_Ba2MgCuSn2F14
_symmetry_space_group_name_H-M   'P 1'
_cell_length_a   5.38862705
_cell_length_b   7.70279062
_cell_length_c   15.49843869
_cell_angle_alpha   91.55000353
_cell_angle_beta   90.39728442
_cell_angle_gamma   109.78284798
_symmetry_Int_Tables_number   1
_chemical_formula_structural   Ba2MgCuSn2F14
_chemical_formula_sum   'Ba4 Mg2 Cu2 Sn4 F28'
_cell_volume   605.02465295
_cell_formula_units_Z   2
loop_
 _symmetry_equiv_pos_site_id
 _symmetry_equiv_pos_as_xyz
  1  'x, y, z'
loop_
 _atom_site_type_symbol
 _atom_site_label
 _atom_site_symmetry_multiplicity
 _atom_site_fract_x
 _atom_site_fract_y
 _atom_site_fract_z
 _atom_site_occupancy
  Ba  Ba0  1  0.08132800  0.35031800  0.62258400  1
  Ba  Ba1  1  0.27001900  0.35138600  0.12765300  1
  Ba  Ba2  1  0.91180800  0.63348500  0.37203000  1
  Ba  Ba3  1  0.72104200  0.63530600  0.87302300  1
  Mg  Mg4  1  0.46252900  0.01071500  0.75292600  1
  Mg  Mg5  1  0.55263000  0.01272100  0.25363900  1
  Cu  Cu6  1  0.50381400  0.00584100  0.99918100  1
  Cu  Cu7  1  0.50640600  0.00655100  0.49675700  1
  Sn  Sn8  1  0.08662400  0.23012600  0.87522300  1
  Sn  Sn9  1  0.90846000  0.76485800  0.12538400  1
  Sn  Sn10  1  0.15333500  0.22697600  0.37674800  1
  Sn  Sn11  1  0.85708500  0.76461400  0.62493100  1
  F  F12  1  0.83053600  0.96220400  0.32351800  1
  F  F13  1  0.86403500  0.30770200  0.45945300  1
  F  F14  1  0.12626500  0.70490000  0.54778400  1
  F  F15  1  0.63240000  0.49852900  0.60328100  1
  F  F16  1  0.62596000  0.06465600  0.63141600  1
  F  F17  1  0.56426600  0.92850000  0.87016100  1
  F  F18  1  0.44386200  0.30600300  0.95613700  1
  F  F19  1  0.88770500  0.00874700  0.16292200  1
  F  F20  1  0.36635100  0.33874700  0.77301000  1
  F  F21  1  0.37684500  0.52301600  0.39714600  1
  F  F22  1  0.79039600  0.23561800  0.77805200  1
  F  F23  1  0.14578500  0.52012300  0.89519600  1
  F  F24  1  0.45505000  0.23589500  0.27254600  1
  F  F25  1  0.19391400  0.77114300  0.21231100  1
  F  F26  1  0.43669700  0.05724700  0.12754400  1
  F  F27  1  0.63865800  0.65801100  0.21784900  1
  F  F28  1  0.09744800  0.83296200  0.01308800  1
  F  F29  1  0.12184700  0.00770700  0.66529900  1
  F  F30  1  0.89217100  0.16409200  0.00035100  1
  F  F31  1  0.73650600  0.83351700  0.51397900  1
  F  F32  1  0.58031900  0.70381800  0.04676200  1
  F  F33  1  0.57913400  0.77164000  0.71231100  1
  F  F34  1  0.97966800  0.34088800  0.27038000  1
  F  F35  1  0.27237300  0.16396500  0.50882900  1
  F  F36  1  0.35988200  0.93004300  0.36951900  1
  F  F37  1  0.12749900  0.97018200  0.82612400  1
  F  F38  1  0.01686300  0.65949500  0.71912900  1
  F  F39  1  0.86673500  0.49855100  0.10301100  1
