# generated using pymatgen
data_Li19(FeAs)20
_symmetry_space_group_name_H-M   'P 1'
_cell_length_a   8.37564100
_cell_length_b   8.46601226
_cell_length_c   13.01922262
_cell_angle_alpha   97.62867300
_cell_angle_beta   104.99611474
_cell_angle_gamma   89.54049252
_symmetry_Int_Tables_number   1
_chemical_formula_structural   Li19(FeAs)20
_chemical_formula_sum   'Li19 Fe20 As20'
_cell_volume   883.50378010
_cell_formula_units_Z   1
loop_
 _symmetry_equiv_pos_site_id
 _symmetry_equiv_pos_as_xyz
  1  'x, y, z'
loop_
 _atom_site_type_symbol
 _atom_site_label
 _atom_site_symmetry_multiplicity
 _atom_site_fract_x
 _atom_site_fract_y
 _atom_site_fract_z
 _atom_site_occupancy
  Li  Li0  1  0.41787400  0.08129500  0.66841900  1
  Li  Li1  1  0.78263300  0.01543500  0.82983600  1
  Li  Li2  1  0.81947600  0.28375700  0.66798000  1
  Li  Li3  1  0.61571500  0.18395500  0.16857700  1
  Li  Li4  1  0.18069700  0.21528900  0.82975800  1
  Li  Li5  1  0.98384900  0.11555400  0.33228300  1
  Li  Li6  1  0.01796800  0.38257700  0.16812400  1
  Li  Li7  1  0.21481800  0.48341800  0.66829500  1
  Li  Li8  1  0.38312600  0.31615500  0.33185000  1
  Li  Li9  1  0.58282700  0.41644900  0.83220100  1
  Li  Li10  1  0.61723600  0.68685200  0.66834100  1
  Li  Li11  1  0.41669000  0.58436700  0.16760600  1
  Li  Li12  1  0.78176400  0.51670400  0.33204300  1
  Li  Li13  1  0.98292300  0.61673000  0.82983200  1
  Li  Li14  1  0.81867800  0.78363200  0.16923900  1
  Li  Li15  1  0.38164900  0.81629200  0.83016000  1
  Li  Li16  1  0.18276000  0.71589100  0.33232600  1
  Li  Li17  1  0.21739900  0.98390800  0.16806200  1
  Li  Li18  1  0.58261700  0.91714600  0.33188300  1
  Fe  Fe19  1  0.34527400  0.04803800  0.99880400  1
  Fe  Fe20  1  0.75067100  0.24937500  0.99970000  1
  Fe  Fe21  1  0.54927500  0.15142900  0.50092600  1
  Fe  Fe22  1  0.04985500  0.14774900  0.99924800  1
  Fe  Fe23  1  0.84932500  0.05007000  0.50050900  1
  Fe  Fe24  1  0.15007100  0.44991700  0.00045700  1
  Fe  Fe25  1  0.94935300  0.34992300  0.49876000  1
  Fe  Fe26  1  0.44811400  0.34920200  0.99966100  1
  Fe  Fe27  1  0.25424100  0.25193000  0.50107500  1
  Fe  Fe28  1  0.54926800  0.65032400  0.99967400  1
  Fe  Fe29  1  0.35090100  0.54869300  0.50057500  1
  Fe  Fe30  1  0.64617800  0.44881200  0.50093300  1
  Fe  Fe31  1  0.85158400  0.55073800  0.99980000  1
  Fe  Fe32  1  0.95450900  0.85228800  0.99932700  1
  Fe  Fe33  1  0.74772800  0.74994200  0.50043600  1
  Fe  Fe34  1  0.24833200  0.75155800  0.99918900  1
  Fe  Fe35  1  0.05173100  0.64973600  0.50070600  1
  Fe  Fe36  1  0.15328900  0.95013000  0.50074600  1
  Fe  Fe37  1  0.44986400  0.85016700  0.49928600  1
  Fe  Fe38  1  0.65085000  0.95027500  0.00126600  1
  As  As39  1  0.50240200  0.12513200  0.88389400  1
  As  As40  1  0.30292700  0.02978300  0.38307700  1
  As  As41  1  0.90182000  0.32655100  0.88344700  1
  As  As42  1  0.70466900  0.22828300  0.38503300  1
  As  As43  1  0.89513500  0.07193400  0.11589700  1
  As  As44  1  0.09658100  0.17255300  0.61562600  1
  As  As45  1  0.10255600  0.42467500  0.38446100  1
  As  As46  1  0.30461500  0.52699000  0.88361000  1
  As  As47  1  0.29709800  0.27011900  0.11618200  1
  As  As48  1  0.49707000  0.37360300  0.61763300  1
  As  As49  1  0.70455600  0.72812000  0.88371800  1
  As  As50  1  0.50330600  0.62391000  0.38296400  1
  As  As51  1  0.89568200  0.57387100  0.61576500  1
  As  As52  1  0.69699000  0.47338500  0.11706400  1
  As  As53  1  0.10391200  0.92683500  0.88225600  1
  As  As54  1  0.90390000  0.82677200  0.38424300  1
  As  As55  1  0.29371600  0.77318700  0.61681200  1
  As  As56  1  0.09599500  0.67576000  0.11665900  1
  As  As57  1  0.70069600  0.97366100  0.61662200  1
  As  As58  1  0.49633800  0.87471400  0.11484400  1
