# generated using pymatgen
data_Zn(CoO2)2
_symmetry_space_group_name_H-M   'P 1'
_cell_length_a   5.05432245
_cell_length_b   5.05432245
_cell_length_c   9.70759000
_cell_angle_alpha   90.00000000
_cell_angle_beta   90.00000000
_cell_angle_gamma   146.30260148
_symmetry_Int_Tables_number   1
_chemical_formula_structural   Zn(CoO2)2
_chemical_formula_sum   'Zn2 Co4 O8'
_cell_volume   137.58749856
_cell_formula_units_Z   2
loop_
 _symmetry_equiv_pos_site_id
 _symmetry_equiv_pos_as_xyz
  1  'x, y, z'
loop_
 _atom_site_type_symbol
 _atom_site_label
 _atom_site_symmetry_multiplicity
 _atom_site_fract_x
 _atom_site_fract_y
 _atom_site_fract_z
 _atom_site_occupancy
  Zn  Zn0  1  0.61044000  0.38956000  0.75000000  1
  Zn  Zn1  1  0.38956000  0.61044000  0.25000000  1
  Co  Co2  1  0.13195100  0.86804900  0.07062300  1
  Co  Co3  1  0.86804900  0.13195100  0.92937700  1
  Co  Co4  1  0.13195100  0.86804900  0.42937700  1
  Co  Co5  1  0.86804900  0.13195100  0.57062300  1
  O  O6  1  0.77457500  0.22542500  0.38711000  1
  O  O7  1  0.22542500  0.77457500  0.61289000  1
  O  O8  1  0.22542500  0.77457500  0.88711000  1
  O  O9  1  0.77457500  0.22542500  0.11289000  1
  O  O10  1  0.04125800  0.95874200  0.25000000  1
  O  O11  1  0.95874200  0.04125800  0.75000000  1
  O  O12  1  0.50000000  0.50000000  0.00000000  1
  O  O13  1  0.50000000  0.50000000  0.50000000  1
