# generated using pymatgen
data_LiTiO2
_symmetry_space_group_name_H-M   'P 1'
_cell_length_a   7.76340881
_cell_length_b   8.74184277
_cell_length_c   10.49871206
_cell_angle_alpha   114.68237188
_cell_angle_beta   80.63748938
_cell_angle_gamma   101.25833029
_symmetry_Int_Tables_number   1
_chemical_formula_structural   LiTiO2
_chemical_formula_sum   'Li16 Ti16 O32'
_cell_volume   632.31692799
_cell_formula_units_Z   16
loop_
 _symmetry_equiv_pos_site_id
 _symmetry_equiv_pos_as_xyz
  1  'x, y, z'
loop_
 _atom_site_type_symbol
 _atom_site_label
 _atom_site_symmetry_multiplicity
 _atom_site_fract_x
 _atom_site_fract_y
 _atom_site_fract_z
 _atom_site_occupancy
  Li  Li0  1  0.09313881  0.99122856  0.25746574  1
  Li  Li1  1  0.23371234  0.59985241  0.75589192  1
  Li  Li2  1  0.64657758  0.77735373  0.99214997  1
  Li  Li3  1  0.49126599  0.85257956  0.51115521  1
  Li  Li4  1  0.24833259  0.91910220  0.74396746  1
  Li  Li5  1  0.15256532  0.28124177  0.49913701  1
  Li  Li6  1  0.58670756  0.48918646  0.76122683  1
  Li  Li7  1  0.50119403  0.16557034  0.49951686  1
  Li  Li8  1  0.40308631  0.52299418  0.23750388  1
  Li  Li9  1  0.83676720  0.74046519  0.51900835  1
  Li  Li10  1  0.74862302  0.41468047  0.24856265  1
  Li  Li11  1  0.75669528  0.76498618  0.24566124  1
  Li  Li12  1  0.33861893  0.24206602  0.01410841  1
  Li  Li13  1  0.90572091  0.02630782  0.74172625  1
  Li  Li14  1  0.73717356  0.10432231  0.25706261  1
  Li  Li15  1  0.99108861  0.35837291  0.01249730  1
  Ti  Ti16  1  0.31133344  0.89305055  0.99429497  1
  Ti  Ti17  1  0.17047453  0.95525977  0.50475158  1
  Ti  Ti18  1  0.30999857  0.55279863  0.98694169  1
  Ti  Ti19  1  0.17290082  0.62290597  0.49881941  1
  Ti  Ti20  1  0.56215324  0.80302575  0.74298035  1
  Ti  Ti21  1  0.07794793  0.65426100  0.25917117  1
  Ti  Ti22  1  0.41599341  0.87033931  0.26104189  1
  Ti  Ti23  1  0.91854087  0.71400438  0.77147992  1
  Ti  Ti24  1  0.06645268  0.30498028  0.24499439  1
  Ti  Ti25  1  0.56644895  0.14635330  0.74986417  1
  Ti  Ti26  1  0.91779406  0.37190880  0.76168209  1
  Ti  Ti27  1  0.41823063  0.21422025  0.26529394  1
  Ti  Ti28  1  0.81794589  0.39707034  0.49938965  1
  Ti  Ti29  1  0.68292913  0.46511760  0.00971682  1
  Ti  Ti30  1  0.82692489  0.06279458  0.49758204  1
  Ti  Ti31  1  0.67449685  0.12305393  0.00308311  1
  O  O32  1  0.12229007  0.81028155  0.87610459  1
  O  O33  1  0.04137047  0.83167427  0.63265324  1
  O  O34  1  0.44332260  0.67824765  0.86811395  1
  O  O35  1  0.03850050  0.49531091  0.62747135  1
  O  O36  1  0.12613390  0.45670556  0.87233836  1
  O  O37  1  0.77205731  0.90684719  0.87266606  1
  O  O38  1  0.69824650  0.93516806  0.62219238  1
  O  O39  1  0.30938121  0.73659423  0.37629171  1
  O  O40  1  0.37182781  0.71447232  0.62537880  1
  O  O41  1  0.02547594  0.16008041  0.62318434  1
  O  O42  1  0.47071520  0.36326460  0.88889237  1
  O  O43  1  0.20785248  0.77719935  0.13066527  1
  O  O44  1  0.53722012  0.99354860  0.12616196  1
  O  O45  1  0.62811847  0.95872101  0.36965203  1
  O  O46  1  0.78957112  0.58689453  0.88327905  1
  O  O47  1  0.27511267  0.40657192  0.37271993  1
  O  O48  1  0.71628254  0.61251960  0.63679601  1
  O  O49  1  0.19685817  0.43532490  0.12179553  1
  O  O50  1  0.37194020  0.05328200  0.62879230  1
  O  O51  1  0.44370537  0.02797225  0.88006552  1
  O  O52  1  0.79784225  0.24013222  0.87822862  1
  O  O53  1  0.53250073  0.66118344  0.12229322  1
  O  O54  1  0.95408512  0.85883743  0.37662397  1
  O  O55  1  0.61833446  0.30302668  0.38158317  1
  O  O56  1  0.69499266  0.27839596  0.62965249  1
  O  O57  1  0.29234995  0.08802690  0.38548649  1
  O  O58  1  0.21520248  0.11087233  0.13483268  1
  O  O59  1  0.85898977  0.55706861  0.14019092  1
  O  O60  1  0.94233446  0.52842245  0.38064145  1
  O  O61  1  0.54254305  0.33158948  0.13541652  1
  O  O62  1  0.94927903  0.18179956  0.37060543  1
  O  O63  1  0.87074344  0.21373846  0.12584043  1
