# generated using pymatgen
data_LiVF4
_symmetry_space_group_name_H-M   'P 1'
_cell_length_a   5.04455800
_cell_length_b   7.45481400
_cell_length_c   7.77505358
_cell_angle_alpha   77.95249161
_cell_angle_beta   90.00000000
_cell_angle_gamma   90.00000000
_symmetry_Int_Tables_number   1
_chemical_formula_structural   LiVF4
_chemical_formula_sum   'Li4 V4 F16'
_cell_volume   285.95060314
_cell_formula_units_Z   4
loop_
 _symmetry_equiv_pos_site_id
 _symmetry_equiv_pos_as_xyz
  1  'x, y, z'
loop_
 _atom_site_type_symbol
 _atom_site_label
 _atom_site_symmetry_multiplicity
 _atom_site_fract_x
 _atom_site_fract_y
 _atom_site_fract_z
 _atom_site_occupancy
  Li  Li0  1  0.25644700  0.35928100  0.37475100  1
  Li  Li1  1  0.24355300  0.85928100  0.37475100  1
  Li  Li2  1  0.75644700  0.14071900  0.62524900  1
  Li  Li3  1  0.74355300  0.64071900  0.62524900  1
  V  V4  1  0.74553700  0.19106600  0.18290800  1
  V  V5  1  0.75446300  0.69106600  0.18290800  1
  V  V6  1  0.24553700  0.30893400  0.81709200  1
  V  V7  1  0.25446300  0.80893400  0.81709200  1
  F  F8  1  0.05576900  0.30513100  0.04216000  1
  F  F9  1  0.44423100  0.80513100  0.04216000  1
  F  F10  1  0.59116100  0.44036200  0.19332400  1
  F  F11  1  0.43787200  0.09352800  0.31370400  1
  F  F12  1  0.90883900  0.94036200  0.19332400  1
  F  F13  1  0.06212800  0.59352800  0.31370400  1
  F  F14  1  0.93638000  0.19987300  0.39841100  1
  F  F15  1  0.56362000  0.69987300  0.39841100  1
  F  F16  1  0.43638000  0.30012700  0.60158900  1
  F  F17  1  0.06362000  0.80012700  0.60158900  1
  F  F18  1  0.93787200  0.40647200  0.68629600  1
  F  F19  1  0.09116100  0.05963800  0.80667600  1
  F  F20  1  0.56212800  0.90647200  0.68629600  1
  F  F21  1  0.40883900  0.55963800  0.80667600  1
  F  F22  1  0.55576900  0.19486900  0.95784000  1
  F  F23  1  0.94423100  0.69486900  0.95784000  1
