# generated using pymatgen
data_CaMnS2
_symmetry_space_group_name_H-M   'P 1'
_cell_length_a   6.60730999
_cell_length_b   6.60730999
_cell_length_c   6.60731011
_cell_angle_alpha   34.03538887
_cell_angle_beta   34.03538887
_cell_angle_gamma   34.03539354
_symmetry_Int_Tables_number   1
_chemical_formula_structural   CaMnS2
_chemical_formula_sum   'Ca1 Mn1 S2'
_cell_volume   80.55246394
_cell_formula_units_Z   1
loop_
 _symmetry_equiv_pos_site_id
 _symmetry_equiv_pos_as_xyz
  1  'x, y, z'
loop_
 _atom_site_type_symbol
 _atom_site_label
 _atom_site_symmetry_multiplicity
 _atom_site_fract_x
 _atom_site_fract_y
 _atom_site_fract_z
 _atom_site_occupancy
  Ca  Ca0  1  0.00000000  0.00000000  0.00000000  1
  Mn  Mn1  1  0.50000000  0.50000000  0.50000000  1
  S  S2  1  0.24187000  0.24187000  0.24187000  1
  S  S3  1  0.75813000  0.75813000  0.75813000  1
