data_image0
_chemical_formula_structural       Mo4S8
_chemical_formula_sum              "Mo4 S8"
_cell_length_a       4.60143
_cell_length_b       4.66579
_cell_length_c       6.1701
_cell_angle_alpha    90
_cell_angle_beta     90
_cell_angle_gamma    90

_space_group_name_H-M_alt    "P 1"
_space_group_IT_number       1

loop_
  _space_group_symop_operation_xyz
  'x, y, z'

loop_
  _atom_site_type_symbol
  _atom_site_label
  _atom_site_symmetry_multiplicity
  _atom_site_fract_x
  _atom_site_fract_y
  _atom_site_fract_z
  _atom_site_occupancy
  Mo  Mo1       1.0  0.00000  0.00000  0.00000  1.0000
  Mo  Mo2       1.0  0.50000  0.00000  0.50000  1.0000
  Mo  Mo3       1.0  0.50000  0.50000  0.00000  1.0000
  Mo  Mo4       1.0  0.00000  0.50000  0.50000  1.0000
  S   S1        1.0  0.39000  0.38000  0.41000  1.0000
  S   S2        1.0  0.11000  0.62000  0.91000  1.0000
  S   S3        1.0  0.89000  0.12000  0.59000  1.0000
  S   S4        1.0  0.61000  0.88000  0.09000  1.0000
  S   S5        1.0  0.61000  0.62000  0.59000  1.0000
  S   S6        1.0  0.89000  0.38000  0.09000  1.0000
  S   S7        1.0  0.11000  0.88000  0.41000  1.0000
  S   S8        1.0  0.39000  0.12000  0.91000  1.0000
