data_image0
_chemical_formula_structural       S6Mo4S2
_chemical_formula_sum              "S8 Mo4"
_cell_length_a       4.54395
_cell_length_b       4.54395
_cell_length_c       7.4082
_cell_angle_alpha    90
_cell_angle_beta     90
_cell_angle_gamma    120

_space_group_name_H-M_alt    "P 1"
_space_group_IT_number       1

loop_
  _space_group_symop_operation_xyz
  'x, y, z'

loop_
  _atom_site_type_symbol
  _atom_site_label
  _atom_site_symmetry_multiplicity
  _atom_site_fract_x
  _atom_site_fract_y
  _atom_site_fract_z
  _atom_site_occupancy
  S   S1        1.0  0.16700  0.33400  0.25000  1.0000
  S   S2        1.0  0.83300  0.16700  0.75000  1.0000
  S   S3        1.0  0.66600  0.83300  0.25000  1.0000
  S   S4        1.0  0.83300  0.66600  0.75000  1.0000
  S   S5        1.0  0.16700  0.83300  0.25000  1.0000
  S   S6        1.0  0.33400  0.16700  0.75000  1.0000
  Mo  Mo1       1.0  0.33330  0.66670  0.06270  1.0000
  Mo  Mo2       1.0  0.66660  0.33330  0.56270  1.0000
  Mo  Mo3       1.0  0.33330  0.66670  0.43730  1.0000
  Mo  Mo4       1.0  0.66660  0.33330  0.93730  1.0000
  S   S7        1.0  0.00000  0.00000  0.00000  1.0000
  S   S8        1.0  0.00000  0.00000  0.50000  1.0000
