# generated using pymatgen
data_Li8CoNi9O20
_symmetry_space_group_name_H-M   'P 1'
_cell_length_a   2.81502900
_cell_length_b   11.59908300
_cell_length_c   21.32615236
_cell_angle_alpha   82.63644146
_cell_angle_beta   90.00000000
_cell_angle_gamma   90.00000000
_symmetry_Int_Tables_number   1
_chemical_formula_structural   Li8CoNi9O20
_chemical_formula_sum   'Li16 Co2 Ni18 O40'
_cell_volume   690.59353257
_cell_formula_units_Z   2
loop_
 _symmetry_equiv_pos_site_id
 _symmetry_equiv_pos_as_xyz
  1  'x, y, z'
loop_
 _atom_site_type_symbol
 _atom_site_label
 _atom_site_symmetry_multiplicity
 _atom_site_fract_x
 _atom_site_fract_y
 _atom_site_fract_z
 _atom_site_occupancy
  Li  Li0  1  0.50000000  0.65423800  0.90745100  1
  Li  Li1  1  0.50000000  0.14894300  0.89938800  1
  Li  Li2  1  0.00000000  0.54920300  0.80172100  1
  Li  Li3  1  0.50000000  0.96012300  0.70710400  1
  Li  Li4  1  0.50000000  0.45054500  0.69988000  1
  Li  Li5  1  0.00000000  0.85014800  0.59612600  1
  Li  Li6  1  0.00000000  0.35045600  0.59675400  1
  Li  Li7  1  0.50000000  0.74135700  0.48860600  1
  Li  Li8  1  0.50000000  0.24989600  0.49933400  1
  Li  Li9  1  0.00000000  0.14939300  0.40042200  1
  Li  Li10  1  0.50000000  0.55517700  0.30893800  1
  Li  Li11  1  0.50000000  0.05116200  0.30139800  1
  Li  Li12  1  0.00000000  0.95459000  0.20056900  1
  Li  Li13  1  0.00000000  0.44639800  0.20083200  1
  Li  Li14  1  0.50000000  0.84408800  0.09349800  1
  Li  Li15  1  0.50000000  0.34379000  0.09155900  1
  Co  Co16  1  0.00000000  0.00004000  0.99940200  1
  Co  Co17  1  0.00000000  0.50071000  0.99980900  1
  Ni  Ni18  1  0.50000000  0.89851900  0.90029300  1
  Ni  Ni19  1  0.50000000  0.39599800  0.90270500  1
  Ni  Ni20  1  0.00000000  0.79577700  0.80099000  1
  Ni  Ni21  1  0.00000000  0.30260200  0.80009600  1
  Ni  Ni22  1  0.50000000  0.69807300  0.70225800  1
  Ni  Ni23  1  0.50000000  0.19747200  0.70346100  1
  Ni  Ni24  1  0.00000000  0.59936900  0.60103200  1
  Ni  Ni25  1  0.00000000  0.10136400  0.60045000  1
  Ni  Ni26  1  0.50000000  0.00104900  0.49968700  1
  Ni  Ni27  1  0.50000000  0.50243600  0.49808600  1
  Ni  Ni28  1  0.00000000  0.90371500  0.39885500  1
  Ni  Ni29  1  0.00000000  0.39610000  0.40089400  1
  Ni  Ni30  1  0.50000000  0.79884800  0.30048600  1
  Ni  Ni31  1  0.50000000  0.29885600  0.30050100  1
  Ni  Ni32  1  0.00000000  0.70156100  0.19929300  1
  Ni  Ni33  1  0.00000000  0.19892100  0.19971400  1
  Ni  Ni34  1  0.50000000  0.60407100  0.09679800  1
  Ni  Ni35  1  0.50000000  0.10519100  0.09594600  1
  O  O36  1  0.50000000  0.60935300  0.00004100  1
  O  O37  1  0.50000000  0.10753200  0.99898900  1
  O  O38  1  0.00000000  0.78471900  0.88864900  1
  O  O39  1  0.00000000  0.51595100  0.90910100  1
  O  O40  1  0.00000000  0.28405000  0.88796800  1
  O  O41  1  0.00000000  0.01170100  0.91086200  1
  O  O42  1  0.50000000  0.90213400  0.79976000  1
  O  O43  1  0.50000000  0.68475600  0.80198700  1
  O  O44  1  0.50000000  0.41436600  0.79915500  1
  O  O45  1  0.50000000  0.19632900  0.80095800  1
  O  O46  1  0.00000000  0.80910000  0.70914700  1
  O  O47  1  0.00000000  0.58615200  0.70197300  1
  O  O48  1  0.00000000  0.31139600  0.70848100  1
  O  O49  1  0.00000000  0.08917500  0.69713600  1
  O  O50  1  0.50000000  0.98819200  0.60163800  1
  O  O51  1  0.50000000  0.71223200  0.60319300  1
  O  O52  1  0.50000000  0.48618300  0.60256800  1
  O  O53  1  0.50000000  0.21513900  0.60072600  1
  O  O54  1  0.00000000  0.88915800  0.49997600  1
  O  O55  1  0.00000000  0.61133200  0.50451200  1
  O  O56  1  0.00000000  0.38891200  0.50003200  1
  O  O57  1  0.00000000  0.11288100  0.50091400  1
  O  O58  1  0.50000000  0.79550200  0.39684100  1
  O  O59  1  0.50000000  0.50445900  0.40097800  1
  O  O60  1  0.50000000  0.28398100  0.40022000  1
  O  O61  1  0.50000000  0.01605000  0.39949600  1
  O  O62  1  0.00000000  0.91185000  0.29780300  1
  O  O63  1  0.00000000  0.68908500  0.29021800  1
  O  O64  1  0.00000000  0.41101000  0.30004900  1
  O  O65  1  0.00000000  0.18717500  0.29956600  1
  O  O66  1  0.50000000  0.81133800  0.19845200  1
  O  O67  1  0.50000000  0.59071400  0.20049400  1
  O  O68  1  0.50000000  0.31205400  0.20009300  1
  O  O69  1  0.50000000  0.08560700  0.20006000  1
  O  O70  1  0.00000000  0.99201400  0.09171800  1
  O  O71  1  0.00000000  0.71811500  0.11104700  1
  O  O72  1  0.00000000  0.48348500  0.08998500  1
  O  O73  1  0.00000000  0.21255600  0.10376600  1
  O  O74  1  0.50000000  0.89181300  0.99962400  1
  O  O75  1  0.50000000  0.39215000  0.99904400  1
